[TITLE]

[JUNCTIONS]
;ID                      Elevation       Demand Pattern                 
 J0                      1480.4337387    158.50323141                            ;
 J1                      1537.1437966    158.50323141                            ;
 J2                      1515.6162016    158.50323141                            ;
 J3                       1502.492633    158.50323141                            ;
 J4                      1458.9257192    158.50323141                            ;
 J5                      1458.9233452    158.50323141                            ;
 J6                      1449.2864448    158.50323141                            ;
 J7                      1528.8231115    158.50323141                            ;
 J8                      1502.7344172    158.50323141                            ;
 J9                      1513.2617367    158.50323141                            ;
 J10                     1445.5955867    158.50323141                            ;
 J11                     1539.0331219    158.50323141                            ;
 J12                     1525.5028846    158.50323141                            ;
 J13                     1464.4690726    158.50323141                            ;
 J14                      1461.465712    158.50323141                            ;
 J15                     1461.6211788    158.50323141                            ;
 J16                     1473.5146565    158.50323141                            ;
 J17                     1495.2188089    158.50323141                            ;
 J18                     1486.0838273    158.50323141                            ;
 J19                     1472.2338393    158.50323141                            ;
 J20                     1503.7912954    158.50323141                            ;
 J21                     1457.2992645    158.50323141                            ;
 J22                     1472.3239483    158.50323141                            ;
 J23                     1479.6287904    158.50323141                            ;
 J24                     1488.4583318    158.50323141                            ;
 J25                     1520.8506524    158.50323141                            ;
 J26                     1463.2224851    158.50323141                            ;
 J27                     1494.1831796    158.50323141                            ;
 J28                     1501.8780744    158.50323141                            ;
 J29                     1448.1414448    158.50323141                            ;
 J30                     1503.3672754    158.50323141                            ;
 J31                     1460.3534242    158.50323141                            ;
 J32                     1449.9722697    158.50323141                            ;
 J33                     1536.9637996    158.50323141                            ;
 J34                     1538.6120767    158.50323141                            ;
 J35                     1523.1362219    158.50323141                            ;
 J36                      1473.551224    158.50323141                            ;
 J37                     1453.1829509    158.50323141                            ;
 J38                     1510.9153241    158.50323141                            ;
 J39                     1486.8916496    158.50323141                            ;
 J40                     1455.5811911    158.50323141                            ;
 J41                     1492.3074387    158.50323141                            ;
 J42                     1446.9542508    158.50323141                            ;
 J43                     1533.0695934    158.50323141                            ;
 J44                     1469.0400244    158.50323141                            ;
 J45                     1508.7784401    158.50323141                            ;
 J46                     1474.2497778    158.50323141                            ;
 J47                     1494.7573512    158.50323141                            ;
 J48                     1497.3796207    158.50323141                            ;
 J49                       1461.76389    158.50323141                            ;
 J50                     1539.0011117    158.50323141                            ;
 J51                     1519.8621545    158.50323141                            ;
 J52                     1536.0399221    158.50323141                            ;
 J53                     1531.6431119    158.50323141                            ;
 J54                     1502.4179769    158.50323141                            ;
 J55                     1534.3052069    158.50323141                            ;
 J56                     1452.2794457    158.50323141                            ;
 J57                     1462.8592056    158.50323141                            ;
 J58                     1448.0210586    158.50323141                            ;
 J59                     1475.5902557    158.50323141                            ;
 J60                     1481.8251926    158.50323141                            ;
 J61                     1470.2771357    158.50323141                            ;
 J62                     1525.1382063    158.50323141                            ;
 J63                     1478.6830702    158.50323141                            ;
 J64                     1471.2205882    158.50323141                            ;
 J65                     1496.9845226    158.50323141                            ;
 J66                     1457.4400484    158.50323141                            ;
 J67                     1522.5259495    158.50323141                            ;
 J68                     1450.9072156    158.50323141                            ;
 J69                     1540.7040948    158.50323141                            ;
 J70                     1519.5778972    158.50323141                            ;
 J71                     1463.1281839    158.50323141                            ;
 J72                     1444.1130693    158.50323141                            ;
 J73                     1523.8315054    158.50323141                            ;
 J74                      1513.142127    158.50323141                            ;
 J75                     1515.3222278    158.50323141                            ;
 J76                     1519.4819895    158.50323141                            ;
 J77                     1450.8574132    158.50323141                            ;
 J78                     1478.8516137    158.50323141                            ;
 J79                     1454.9739888    158.50323141                            ;
 J80                     1528.5206784    158.50323141                            ;
 J81                     1504.9177946    158.50323141                            ;
 J82                      1476.138257    158.50323141                            ;
 J83                     1449.8252969    158.50323141                            ;
 J84                       1474.17805    158.50323141                            ;
 J85                     1475.5757863    158.50323141                            ;
 J86                     1515.3811855    158.50323141                            ;
 J87                     1506.3212734    158.50323141                            ;
 J88                     1530.8936426    158.50323141                            ;
 J89                     1490.0474008    158.50323141                            ;
 J90                      1455.340641    158.50323141                            ;
 J91                     1513.7708124    158.50323141                            ;
 J92                      1518.449972    158.50323141                            ;
 J93                     1498.8133725    158.50323141                            ;
 J94                     1519.4521503    158.50323141                            ;
 J95                     1492.1714826    158.50323141                            ;
 J96                     1495.0196354    158.50323141                            ;
 J97                     1485.6503627    158.50323141                            ;
 J98                     1446.0714364    158.50323141                            ;
 J99                     1454.1887887    158.50323141                            ;
 J100                    1446.6629776    158.50323141                            ;
 J101                    1506.2083738    158.50323141                            ;
 J102                    1474.5101031    158.50323141                            ;
 J103                    1493.6257242    158.50323141                            ;
 J104                    1532.8969627    158.50323141                            ;
 J105                    1468.1061905    158.50323141                            ;
 J106                    1483.9615738    158.50323141                            ;
 J107                    1517.9348233    158.50323141                            ;
 J108                    1466.0890583    158.50323141                            ;
 J109                    1451.1463166    158.50323141                            ;
 J110                    1472.0883976    158.50323141                            ;
 J111                    1459.4377907    158.50323141                            ;
 J112                    1535.0752282    158.50323141                            ;
 J113                    1523.1089612    158.50323141                            ;
 J114                    1505.9124432    158.50323141                            ;
 J115                    1529.3432339    158.50323141                            ;
 J116                    1522.6711362    158.50323141                            ;
 J117                    1461.9327486    158.50323141                            ;
 J118                    1531.4198489    158.50323141                            ;
 J119                    1496.6544201    158.50323141                            ;
 J120                      1523.04201    158.50323141                            ;
 J121                    1531.7675164    158.50323141                            ;
 J122                    1474.8691084    158.50323141                            ;
 J123                    1454.4014361    158.50323141                            ;
 J124                     1466.004117    158.50323141                            ;
 J125                     1485.607722    158.50323141                            ;
 J126                    1524.0828182    158.50323141                            ;
 J127                    1528.2871309    158.50323141                            ;
 J128                    1444.2538186    158.50323141                            ;
 J129                    1493.8399576    158.50323141                            ;
 J130                     1484.653314    158.50323141                            ;
 J131                    1465.4305588    158.50323141                            ;
 J132                    1455.3673262    158.50323141                            ;
 J133                    1476.7993935    158.50323141                            ;
 J134                     1536.375627    158.50323141                            ;
 J135                     1475.380866    158.50323141                            ;
 J136                    1494.6316229    158.50323141                            ;
 J137                    1512.7643332    158.50323141                            ;
 J138                     1479.359869    158.50323141                            ;
 J139                    1539.2173966    158.50323141                            ;
 J140                    1538.2986183    158.50323141                            ;
 J141                    1468.3512758    158.50323141                            ;
 J142                    1492.5113359    158.50323141                            ;
 J143                    1473.1835607    158.50323141                            ;
 J144                    1471.6050355    158.50323141                            ;
 J145                    1447.2001589    158.50323141                            ;
 J146                    1503.5660434    158.50323141                            ;
 J147                    1493.0458356    158.50323141                            ;
 J148                      1448.63636    158.50323141                            ;
 J149                    1470.9953869    158.50323141                            ;
 J150                    1532.9658024    158.50323141                            ;
 J151                    1467.1484801    158.50323141                            ;
 J152                    1457.8308601    158.50323141                            ;
 J153                    1491.7440381    158.50323141                            ;
 J154                    1540.5823938    158.50323141                            ;
 J155                    1467.3938916    158.50323141                            ;
 J156                    1509.7246274    158.50323141                            ;
 J157                    1518.5321144    158.50323141                            ;
 J158                    1466.9590759    158.50323141                            ;
 J159                    1515.2443913    158.50323141                            ;
 J160                     1479.768681    158.50323141                            ;
 J161                    1505.8043797    158.50323141                            ;
 J162                    1505.9248403    158.50323141                            ;
 J163                    1496.3032826    158.50323141                            ;
 J164                    1452.4563422    158.50323141                            ;
 J165                    1525.7843664    158.50323141                            ;
 J166                    1475.1423948    158.50323141                            ;
 J167                    1461.9276749    158.50323141                            ;
 J168                    1447.5828551    158.50323141                            ;
 J169                    1501.7283081    158.50323141                            ;
 J170                    1510.2589595    158.50323141                            ;
 J171                    1445.2022141    158.50323141                            ;
 J172                    1493.9724139    158.50323141                            ;
 J173                    1465.8624451    158.50323141                            ;
 J174                    1507.0708127    158.50323141                            ;
 J175                    1460.7316039    158.50323141                            ;
 J176                    1511.5752367    158.50323141                            ;
 J177                    1481.6340564    158.50323141                            ;
 J178                    1535.7673873    158.50323141                            ;
 J179                    1457.1050798    158.50323141                            ;
 J180                    1477.1390765    158.50323141                            ;
 J181                    1454.7382075    158.50323141                            ;
 J182                    1534.5827052    158.50323141                            ;
 J183                    1529.9218524    158.50323141                            ;
 J184                    1468.9575093    158.50323141                            ;
 J185                    1508.5286135    158.50323141                            ;
 J186                    1524.0048097    158.50323141                            ;
 J187                     1498.215303    158.50323141                            ;
 J188                    1495.7005162    158.50323141                            ;
 J189                    1467.3739131    158.50323141                            ;
 J190                    1452.7332121    158.50323141                            ;
 J191                    1531.8781914    158.50323141                            ;
 J192                    1532.1933783    158.50323141                            ;
 J193                    1505.8826894    158.50323141                            ;
 J194                    1476.9386277    158.50323141                            ;
 J195                    1477.9405749    158.50323141                            ;
 J196                    1515.0218844    158.50323141                            ;
 J197                    1531.8678077    158.50323141                            ;
 J198                    1530.8812097    158.50323141                            ;
 J199                    1520.3289579    158.50323141                            ;
 J200                     1506.761645    158.50323141                            ;
 J201                    1451.8510464    158.50323141                            ;
 J202                    1459.4778918    158.50323141                            ;
 J203                    1532.0099267    158.50323141                            ;
 J204                    1503.2574534    158.50323141                            ;
 J205                    1444.4747754    158.50323141                            ;
 J206                    1453.5569104    158.50323141                            ;
 J207                     1508.874846    158.50323141                            ;
 J208                    1444.0677412    158.50323141                            ;
 J209                    1459.3971179    158.50323141                            ;
 J210                     1497.578785    158.50323141                            ;
 J211                    1511.6694748    158.50323141                            ;
 J212                    1507.7389691    158.50323141                            ;
 J213                    1465.6433047    158.50323141                            ;
 J214                    1513.6659339    158.50323141                            ;
 J215                    1466.9208419    158.50323141                            ;
 J216                    1475.5970832    158.50323141                            ;
 J217                    1517.0431173    158.50323141                            ;
 J218                    1507.5097998    158.50323141                            ;
 J219                    1527.1545352    158.50323141                            ;
 J220                    1508.2952322    158.50323141                            ;
 J221                      1499.50544    158.50323141                            ;
 J222                    1452.7895113    158.50323141                            ;
 J223                    1479.7620541    158.50323141                            ;
 J224                    1469.6721491    158.50323141                            ;
 J225                    1467.5842825    158.50323141                            ;
 J226                    1539.3383092    158.50323141                            ;
 J227                    1482.2602747    158.50323141                            ;
 J228                    1531.3694116    158.50323141                            ;
 J229                    1505.6894973    158.50323141                            ;
 J230                    1521.7990128    158.50323141                            ;
 J231                    1493.0417086    158.50323141                            ;
 J232                    1500.3514322    158.50323141                            ;
 J233                    1492.0457048    158.50323141                            ;
 J234                    1462.7863833    158.50323141                            ;
 J235                    1514.6770455    158.50323141                            ;
 J236                    1471.2046288    158.50323141                            ;
 J237                    1445.9628576    158.50323141                            ;
 J238                    1507.1002916    158.50323141                            ;
 J239                    1461.0017073    158.50323141                            ;
 J240                    1536.1343751    158.50323141                            ;
 J241                    1537.4601618    158.50323141                            ;
 J242                    1533.6152615    158.50323141                            ;
 J243                    1480.0024967    158.50323141                            ;
 J244                    1445.0908743    158.50323141                            ;
 J245                    1534.9394911    158.50323141                            ;
 J246                    1485.7136629    158.50323141                            ;
 J247                    1538.7127447    158.50323141                            ;
 J248                    1538.4140397    158.50323141                            ;
 J249                    1527.5271774    158.50323141                            ;
 J250                     1472.550744    158.50323141                            ;
 J251                    1481.4728736    158.50323141                            ;
 J252                    1527.3428482    158.50323141                            ;
 J253                    1474.7626645    158.50323141                            ;
 J254                    1460.2519108    158.50323141                            ;
 J255                    1498.3728277    158.50323141                            ;
 J256                    1535.7107717    158.50323141                            ;
 J257                    1512.0764236    158.50323141                            ;
 J258                    1499.6779367    158.50323141                            ;
 J259                    1453.1341693    158.50323141                            ;
 J260                    1504.1017612    158.50323141                            ;
 J261                    1541.0157989    158.50323141                            ;
 J262                    1457.3573506    158.50323141                            ;
 J263                    1494.5862519    158.50323141                            ;
 J264                    1529.9251711    158.50323141                            ;
 J265                    1516.4798508    158.50323141                            ;
 J266                    1512.1734653    158.50323141                            ;
 J267                    1512.7116881    158.50323141                            ;
 J268                    1478.9525411    158.50323141                            ;
 J269                    1472.4663889    158.50323141                            ;
 J270                    1523.2310849    158.50323141                            ;
 J271                    1523.3051241    158.50323141                            ;
 J272                    1528.9113174    158.50323141                            ;
 J273                     1533.455435    158.50323141                            ;
 J274                    1493.8985301    158.50323141                            ;
 J275                    1492.9313938    158.50323141                            ;
 J276                    1522.1419139    158.50323141                            ;
 J277                    1507.5423816    158.50323141                            ;
 J278                    1512.6607819    158.50323141                            ;
 J279                    1521.8956039    158.50323141                            ;
 J280                    1531.1685048    158.50323141                            ;
 J281                    1476.8367937    158.50323141                            ;
 J282                    1480.5363799    158.50323141                            ;
 J283                    1452.8197447    158.50323141                            ;
 J284                    1500.4868905    158.50323141                            ;
 J285                    1447.1071792    158.50323141                            ;
 J286                    1489.3961304    158.50323141                            ;
 J287                    1496.9794588    158.50323141                            ;
 J288                     1471.772433    158.50323141                            ;
 J289                    1501.7224338    158.50323141                            ;
 J290                    1446.5715469    158.50323141                            ;
 J291                    1447.2455566    158.50323141                            ;
 J292                    1524.5341759    158.50323141                            ;
 J293                    1479.0213886    158.50323141                            ;
 J294                    1456.0755098    158.50323141                            ;
 J295                    1494.9714495    158.50323141                            ;
 J296                    1519.3563208    158.50323141                            ;
 J297                    1464.8117809    158.50323141                            ;
 J298                    1504.8776715    158.50323141                            ;
 J299                    1451.9698948    158.50323141                            ;
 J300                    1448.6563374    158.50323141                            ;
 J301                     1495.868238    158.50323141                            ;
 J302                    1496.7816721    158.50323141                            ;
 J303                    1506.3087173    158.50323141                            ;
 J304                    1515.0352363    158.50323141                            ;
 J305                    1539.6179868    158.50323141                            ;
 J306                    1494.3865172    158.50323141                            ;
 J307                    1475.3566082    158.50323141                            ;
 J308                    1521.8359116    158.50323141                            ;
 J309                    1470.2262714    158.50323141                            ;
 J310                    1486.7754023    158.50323141                            ;
 J311                    1451.2916386    158.50323141                            ;
 J312                    1446.0647057    158.50323141                            ;
 J313                    1538.3184135    158.50323141                            ;
 J314                    1525.8510617    158.50323141                            ;
 J315                     1512.070952    158.50323141                            ;
 J316                    1483.8208279    158.50323141                            ;
 J317                    1460.6260814    158.50323141                            ;
 J318                    1458.9669005    158.50323141                            ;
 J319                    1468.1997603    158.50323141                            ;
 J320                    1497.6272964    158.50323141                            ;
 J321                    1513.9037982    158.50323141                            ;
 J322                    1508.5496106    158.50323141                            ;
 J323                    1471.1221027    158.50323141                            ;
 J324                     1537.552357    158.50323141                            ;
 J325                    1516.1972031    158.50323141                            ;
 J326                    1498.1319605    158.50323141                            ;
 J327                    1503.7782887    158.50323141                            ;
 J328                    1484.8687725    158.50323141                            ;
 J329                    1467.9525252    158.50323141                            ;
 J330                    1478.6062348    158.50323141                            ;
 J331                    1518.1607064    158.50323141                            ;
 J332                    1444.9862358    158.50323141                            ;
 J333                    1454.9940263    158.50323141                            ;
 J334                    1448.0973729    158.50323141                            ;
 J335                    1447.5782942    158.50323141                            ;
 J336                    1527.7684302    158.50323141                            ;
 J337                    1512.8272171    158.50323141                            ;
 J338                    1490.2402063    158.50323141                            ;
 J339                    1453.1989003    158.50323141                            ;
 J340                    1491.9569431    158.50323141                            ;
 J341                     1490.171106    158.50323141                            ;
 J342                    1460.6169819    158.50323141                            ;
 J343                    1486.2714878    158.50323141                            ;
 J344                    1482.7924607    158.50323141                            ;
 J345                    1504.1847209    158.50323141                            ;
 J346                    1506.0787714    158.50323141                            ;
 J347                    1448.0286099    158.50323141                            ;
 J348                    1480.4408741    158.50323141                            ;
 J349                    1505.1699392    158.50323141                            ;
 J350                    1493.0908391    158.50323141                            ;
 J351                     1527.869735    158.50323141                            ;
 J352                    1508.4016042    158.50323141                            ;
 J353                    1459.6064069    158.50323141                            ;
 J354                    1450.5152967    158.50323141                            ;
 J355                    1506.7997977    158.50323141                            ;
 J356                    1446.1789348    158.50323141                            ;
 J357                    1501.2246307    158.50323141                            ;
 J358                    1536.1119004    158.50323141                            ;
 J359                     1500.210713    158.50323141                            ;