[TITLE]

[JUNCTIONS]
;ID                      Elevation       Demand Pattern                 
 J2225                   1489.7081331    10.943907063 DailyPattern               ;
 J2243                   1541.5456873    10.943907063 DailyPattern               ;
 J2497                   1528.7641548    10.943907063 DailyPattern               ;
 J2508                     1526.93263    10.943907063 DailyPattern               ;
 J2539                     1519.25093    10.943907063 DailyPattern               ;
 J2540                   1508.3865337    10.943907063 DailyPattern               ;
 J2550                   1477.9022835    434.14680419 DailyPattern               ;
 J2551                   1454.4945635    10.943907063 DailyPattern               ;
 J2628                   1492.1732979    10.943907063 DailyPattern               ;
 J2664                   1503.3876761    10.943907063 DailyPattern               ;
 J2665                   1472.6346599    10.943907063 DailyPattern               ;
 J2666                   1457.0145246    10.943907063 DailyPattern               ;
 J2667                   1507.7073255    10.943907063 DailyPattern               ;
 J2694                   1538.4021563    434.14680419 DailyPattern               ;
 J2695                   1494.6554081    10.943907063 DailyPattern               ;
 J2696                   1510.2567849    10.943907063 DailyPattern               ;
 J2697                   1474.2648154    10.943907063 DailyPattern               ;
 J2720                   1532.0105582    10.943907063 DailyPattern               ;
 J2802                   1536.4535688    10.943907063 DailyPattern               ;
 J2831                   1508.7697518    10.943907063 DailyPattern               ;
 J2872                    1531.419773    10.943907063 DailyPattern               ;
 J2873                   1484.8538052    10.943907063 DailyPattern               ;
 J2896                   1496.6300413    10.943907063 DailyPattern               ;
 J2898                   1485.4227217    10.943907063 DailyPattern               ;
 J2899                   1447.2674958    10.943907063 DailyPattern               ;
 J2900                   1456.1548689    10.943907063 DailyPattern               ;
 J2901                   1518.9186434    10.943907063 DailyPattern               ;
 J2902                    1443.570699    10.943907063 DailyPattern               ;
 J2929                   1482.2698689    10.943907063 DailyPattern               ;
 J2930                   1501.7031989    10.943907063 DailyPattern               ;
 J2931                   1508.6300119    10.943907063 DailyPattern               ;
 J2947                   1493.6572069    10.943907063 DailyPattern               ;
 J2948                   1479.9160863    10.943907063 DailyPattern               ;
 J2970                   1481.0220843    10.943907063 DailyPattern               ;
 J2991                    1522.310054    10.943907063 DailyPattern               ;
 J2992                   1497.9698565    10.943907063 DailyPattern               ;
 J2993                    1482.600428    10.943907063 DailyPattern               ;
 J2994                   1456.5336314    10.943907063 DailyPattern               ;
 J3010                    1497.591076    6.0575900745 DailyPattern               ;
 J3011                   1471.8798618    10.943907063 DailyPattern               ;
 J3012                    1473.764101    10.943907063 DailyPattern               ;
 J3013                    1478.309564    10.943907063 DailyPattern               ;
 J3027                   1506.7323882    10.943907063 DailyPattern               ;
 J3028                   1509.6600212    10.943907063 DailyPattern               ;
 J3030                   1463.1553943    10.943907063 DailyPattern               ;
 J3031                   1484.7441467    10.943907063 DailyPattern               ;
 J3032                   1517.4809513    10.943907063 DailyPattern               ;
 J3033                   1453.5472012    10.943907063 DailyPattern               ;
 J3034                    1470.917268    10.943907063 DailyPattern               ;
 J3051                   1491.1128311    6.0575900745 DailyPattern               ;
 J3052                   1470.0000416    10.943907063 DailyPattern               ;
 J3053                   1471.8630248    10.943907063 DailyPattern               ;
 J3054                   1508.2108986    10.943907063 DailyPattern               ;
 J3072                   1474.3675257    10.943907063 DailyPattern               ;
 J3073                   1470.2522559    10.943907063 DailyPattern               ;
 J3074                   1502.3951722    10.943907063 DailyPattern               ;
 J3092                   1482.8446835    10.943907063 DailyPattern               ;
 J3108                   1501.5866788    6.0575900745 DailyPattern               ;
 J3109                   1503.9329086    10.943907063 DailyPattern               ;
 J3110                    1506.334145    10.943907063 DailyPattern               ;
 J3111                   1467.3906247    10.943907063 DailyPattern               ;
 J3137                   1516.1992185    6.0575900745 DailyPattern               ;
 J3138                   1494.8932767    6.0575900745 DailyPattern               ;
 J3139                   1450.3076167    6.0575900745 DailyPattern               ;
 J3140                   1480.0964178    10.943907063 DailyPattern               ;
 J3141                   1534.1961885    10.943907063 DailyPattern               ;
 J3142                   1501.0940528    10.943907063 DailyPattern               ;
 J3143                   1496.5549813    10.943907063 DailyPattern               ;
 J3167                    1453.942902    6.0575900745 DailyPattern               ;
 J3168                   1518.8097829    10.943907063 DailyPattern               ;
 J3169                   1483.8915079    6.0575900745 DailyPattern               ;
 J3170                   1508.0551556    6.0575900745 DailyPattern               ;
 J3171                   1469.1833922    10.943907063 DailyPattern               ;
 J3172                   1459.2676111    10.943907063 DailyPattern               ;
 J3173                   1459.3631182    10.943907063 DailyPattern               ;
 J3174                   1450.5077374    10.943907063 DailyPattern               ;
 J3176                   1508.9454775    10.943907063 DailyPattern               ;
 J3192                   1537.3505594    6.0575900745 DailyPattern               ;
 J3194                   1478.4538992    10.943907063 DailyPattern               ;
 J3195                   1493.3366949    10.943907063 DailyPattern               ;
 J3196                    1536.199555    10.943907063 DailyPattern               ;
 J3197                   1529.8214665    10.943907063 DailyPattern               ;
 J3216                   1459.8377123    6.0575900745 DailyPattern               ;
 J3217                   1443.7656301    6.0575900745 DailyPattern               ;
 J3218                   1514.3116422    10.943907063 DailyPattern               ;
 J3219                   1515.6562712    10.943907063 DailyPattern               ;
 J3220                   1494.2519701    10.943907063 DailyPattern               ;
 J3226                    1467.342865    10.943907063 DailyPattern               ;
 J3227                   1478.4387789    10.943907063 DailyPattern               ;
 J3239                   1498.3804242    10.943907063 DailyPattern               ;
 J3240                   1484.4923002    10.943907063 DailyPattern               ;
 J3255                   1457.6288023    10.943907063 DailyPattern               ;
 J3256                   1511.6870387    10.943907063 DailyPattern               ;
 J3275                   1524.4148651    6.0575900745 DailyPattern               ;
 J3276                   1526.5740979    6.0575900745 DailyPattern               ;
 J3277                   1491.3150912    6.0575900745 DailyPattern               ;
 J3278                   1476.4069943    10.943907063 DailyPattern               ;
 J3279                   1521.4788257    10.943907063 DailyPattern               ;
 J3280                   1487.9882657    10.943907063 DailyPattern               ;
 J3281                   1461.6248881    10.943907063 DailyPattern               ;
 J3282                     1527.72054    10.943907063 DailyPattern               ;
 J3299                   1522.6851586    6.0575900745 DailyPattern               ;
 J3300                   1486.2341436    6.0575900745 DailyPattern               ;
 J3301                   1541.7174233    10.943907063 DailyPattern               ;
 J3302                    1498.595074    10.943907063 DailyPattern               ;
 J3314                   1464.9935105    6.0575900745 DailyPattern               ;
 J3315                   1508.6959601    6.0575900745 DailyPattern               ;
 J3316                   1491.2063026    6.0575900745 DailyPattern               ;
 J3317                   1444.0925337    10.943907063 DailyPattern               ;
 J3318                   1522.7520974    10.943907063 DailyPattern               ;
 J3319                   1519.6334882    10.943907063 DailyPattern               ;
 J3320                   1497.5478179    10.943907063 DailyPattern               ;
 J3321                   1450.1112197    10.943907063 DailyPattern               ;
 J3322                   1519.0139484    10.943907063 DailyPattern               ;
 J3323                   1501.0216786    10.943907063 DailyPattern               ;
 J3324                   1520.5341185    10.943907063 DailyPattern               ;
 J3325                   1517.5603995    10.943907063 DailyPattern               ;
 J3340                   1531.0821447    6.0575900745 DailyPattern               ;
 J3341                   1500.5387226    6.0575900745 DailyPattern               ;
 J3342                   1505.8127944    10.943907063 DailyPattern               ;
 J3343                   1458.9708054    10.943907063 DailyPattern               ;
 J3344                   1490.2153432    10.943907063 DailyPattern               ;
 J3345                   1514.0810806    10.943907063 DailyPattern               ;
 J3361                   1470.3358963    10.943907063 DailyPattern               ;
 J3362                    1511.715117    10.943907063 DailyPattern               ;
 J3363                   1469.5599066    10.943907063 DailyPattern               ;
 J3364                   1535.9975538    10.943907063 DailyPattern               ;
 J3373                   1508.7239775    10.943907063 DailyPattern               ;
 J3383                   1469.1184169    6.0575900745 DailyPattern               ;
 J3384                   1446.8841605    6.0575900745 DailyPattern               ;
 J3385                   1530.1035865    10.943907063 DailyPattern               ;
 J3386                   1467.5259203    10.943907063 DailyPattern               ;
 J3387                   1498.4255744    10.943907063 DailyPattern               ;
 J3388                   1447.4061011    10.943907063 DailyPattern               ;
 J3389                   1509.2041396    10.943907063 DailyPattern               ;
 J3390                   1475.3635839    10.943907063 DailyPattern               ;
 J3391                   1531.9474265    10.943907063 DailyPattern               ;
 J3392                   1530.9827614    10.943907063 DailyPattern               ;
 J3393                    1475.586347    10.943907063 DailyPattern               ;
 J3394                   1532.2468073    10.943907063 DailyPattern               ;
 J3403                   1475.7190862    10.943907063 DailyPattern               ;
 J3404                   1517.2097026    10.943907063 DailyPattern               ;
 J3412                   1445.7768264    6.0575900745 DailyPattern               ;
 J3413                   1479.0446352    10.943907063 DailyPattern               ;
 J3414                   1520.7091454    10.943907063 DailyPattern               ;
 J3416                    1474.354789    10.943907063 DailyPattern               ;
 J3417                   1507.9732945    10.943907063 DailyPattern               ;
 J3418                   1466.4059889    10.943907063 DailyPattern               ;
 J3427                   1505.0473144    10.943907063 DailyPattern               ;
 J3433                   1487.1024087    10.943907063 DailyPattern               ;
 J3440                   1477.2216481    10.943907063 DailyPattern               ;
 J3441                   1495.5063123    10.943907063 DailyPattern               ;
 J3442                   1464.3998588    10.943907063 DailyPattern               ;
 J3443                   1541.5647417    10.943907063 DailyPattern               ;
 J3444                    1540.136277    10.943907063 DailyPattern               ;
 J3456                   1492.8175308    6.0575900745 DailyPattern               ;
 J3457                   1511.5699452    6.0575900745 DailyPattern               ;
 J3458                   1512.1852827    6.0575900745 DailyPattern               ;
 J3459                   1507.4119708    6.0575900745 DailyPattern               ;
 J3460                   1470.6648504    10.943907063 DailyPattern               ;
 J3461                   1458.9442161    10.943907063 DailyPattern               ;
 J3462                   1506.1621057    10.943907063 DailyPattern               ;
 J3463                   1502.5559826    10.943907063 DailyPattern               ;
 J3464                   1461.2227044    10.943907063 DailyPattern               ;
 J3475                   1522.5863781    6.0575900745 DailyPattern               ;
 J3476                   1538.1483084    6.0575900745 DailyPattern               ;
 J3477                   1496.3190694    10.943907063 DailyPattern               ;
 J3478                   1491.6498326    10.943907063 DailyPattern               ;
 J3479                   1483.1253806    10.943907063 DailyPattern               ;
 J3480                    1458.696625    10.943907063 DailyPattern               ;
 J3488                   1446.6939402    6.0575900745 DailyPattern               ;
 J3489                   1485.2363987    6.0575900745 DailyPattern               ;
 J3490                   1451.8929178    6.0575900745 DailyPattern               ;
 J3491                   1503.2985849    6.0575900745 DailyPattern               ;
 J3492                   1530.2794953    6.0575900745 DailyPattern               ;
 J3493                   1530.4706184    6.0575900745 DailyPattern               ;
 J3494                    1508.436228    6.0575900745 DailyPattern               ;
 J3495                   1464.3600884    10.943907063 DailyPattern               ;
 J3496                   1528.5101868    10.943907063 DailyPattern               ;
 J3497                   1530.7834746    10.943907063 DailyPattern               ;
 J3498                   1462.9252216    10.943907063 DailyPattern               ;
 J3499                   1516.1508615    10.943907063 DailyPattern               ;
 J3500                   1471.7702968    10.943907063 DailyPattern               ;
 J3501                   1522.5695845    10.943907063 DailyPattern               ;
 J3502                   1541.7228904    10.943907063 DailyPattern               ;
 J3503                   1446.5248693    10.943907063 DailyPattern               ;
 J3504                   1531.8929658    10.943907063 DailyPattern               ;
 J3516                   1451.9458812    6.0575900745 DailyPattern               ;
 J3517                   1481.5220728    6.0575900745 DailyPattern               ;
 J3518                   1450.5611767    6.0575900745 DailyPattern               ;
 J3519                   1464.3169063    6.0575900745 DailyPattern               ;
 J3520                   1466.1449256    6.0575900745 DailyPattern               ;
 J3521                   1489.7415234    10.943907063 DailyPattern               ;
 J3522                    1470.002838    10.943907063 DailyPattern               ;
 J3523                   1453.5083438    10.943907063 DailyPattern               ;
 J3533                   1473.0364213    6.0575900745 DailyPattern               ;
 J3534                   1466.4540019    6.0575900745 DailyPattern               ;
 J3535                   1456.3332328    6.0575900745 DailyPattern               ;
 J3536                   1468.8119811    10.943907063 DailyPattern               ;
 J3537                     1478.54197    10.943907063 DailyPattern               ;
 J3538                   1509.9075664    10.943907063 DailyPattern               ;
 J3539                   1449.7275107    10.943907063 DailyPattern               ;
 J3540                   1464.2887408    10.943907063 DailyPattern               ;
 J3541                   1523.1978649    10.943907063 DailyPattern               ;
 J3542                   1458.0303731    10.943907063 DailyPattern               ;
 J3543                   1477.2944698    10.943907063 DailyPattern               ;
 J3558                   1451.6672235    6.0575900745 DailyPattern               ;
 J3559                   1488.8042051    6.0575900745 DailyPattern               ;
 J3560                    1473.733281    6.0575900745 DailyPattern               ;
 J3561                   1524.5125864    6.0575900745 DailyPattern               ;
 J3562                   1449.1776962    6.0575900745 DailyPattern               ;
 J3563                   1484.7710572    10.943907063 DailyPattern               ;
 J3564                    1488.690757    10.943907063 DailyPattern               ;
 J3577                   1491.7381106    10.943907063 DailyPattern               ;
 J3578                   1516.5657597    10.943907063 DailyPattern               ;
 J3579                   1492.0507616    10.943907063 DailyPattern               ;
 J3580                   1491.1267254    10.943907063 DailyPattern               ;
 J3584                   1483.6093964    10.943907063 DailyPattern               ;
 J3595                   1507.0287318    6.0575900745 DailyPattern               ;
 J3596                   1466.1902945    6.0575900745 DailyPattern               ;
 J3597                   1497.9654463    6.0575900745 DailyPattern               ;
 J3598                   1480.2007797    6.0575900745 DailyPattern               ;
 J3599                   1508.6942841    6.0575900745 DailyPattern               ;
 J3600                   1457.4695089    6.0575900745 DailyPattern               ;
 J3601                   1499.7582759    6.0575900745 DailyPattern               ;
 J3602                    1461.804825    10.943907063 DailyPattern               ;
 J3603                   1470.9950521    10.943907063 DailyPattern               ;
 J3604                    1465.096109    10.943907063 DailyPattern               ;
 J3605                   1461.5653983    10.943907063 DailyPattern               ;
 J3606                   1524.8403168    10.943907063 DailyPattern               ;
 J3616                   1498.3712183    6.0575900745 DailyPattern               ;
 J3617                     1526.75074    6.0575900745 DailyPattern               ;
 J3618                   1521.9087651    6.0575900745 DailyPattern               ;
 J3619                   1460.8060833    6.0575900745 DailyPattern               ;
 J3620                   1509.7865434    6.0575900745 DailyPattern               ;
 J3621                   1465.2727293    10.943907063 DailyPattern               ;
 J3622                   1465.0466733    10.943907063 DailyPattern               ;
 J3624                   1468.1432696    10.943907063 DailyPattern               ;
 J3629                   1505.3145277    10.943907063 DailyPattern               ;
 J3639                   1463.9968113    6.0575900745 DailyPattern               ;
 J3640                   1467.0091851    6.0575900745 DailyPattern               ;
 J3641                   1532.9824034    10.943907063 DailyPattern               ;
 J3642                   1489.6393426    10.943907063 DailyPattern               ;
 J3654                   1446.5679481    10.943907063 DailyPattern               ;
 J3667                   1459.3844736    10.943907063 DailyPattern               ;
 J3668                   1446.0273946    10.943907063 DailyPattern               ;
 J3669                   1487.7662829    10.943907063 DailyPattern               ;
 J3670                   1466.9434275    10.943907063 DailyPattern               ;
 J3675                   1471.2319308    10.943907063 DailyPattern               ;
 J3690                   1524.9532704    10.943907063 DailyPattern               ;
 J3692                   1519.8731022    10.943907063 DailyPattern               ;
 J3694                   1477.5344894    10.943907063 DailyPattern               ;
 J3706                   1516.3123664    10.943907063 DailyPattern               ;
 J3707                   1470.8790695    10.943907063 DailyPattern               ;
 J3708                   1471.2876682    10.943907063 DailyPattern               ;
 J3709                    1538.388483    10.943907063 DailyPattern               ;
 J3710                   1444.5818073    10.943907063 DailyPattern               ;
 J3711                   1514.0469134    10.943907063 DailyPattern               ;
 J3712                   1513.0819714    10.943907063 DailyPattern               ;
 J3724                   1480.2338187    10.943907063 DailyPattern               ;
 J3725                   1534.9701997    10.943907063 DailyPattern               ;
 J3727                    1452.660157    10.943907063 DailyPattern               ;
 J3728                    1459.592289    10.943907063 DailyPattern               ;
 J3730                   1458.3798167    10.943907063 DailyPattern               ;
 J3731                   1538.8526622    10.943907063 DailyPattern               ;
 J3739                   1500.4486003    434.14680419 DailyPattern               ;
 J3740                   1532.5813427    6.0575900745 DailyPattern               ;
 J3741                   1524.0230821    6.0575900745 DailyPattern               ;
 J3742                   1518.0821635    6.0575900745 DailyPattern               ;
 J3743                   1449.0425382    10.943907063 DailyPattern               ;
 J3744                   1444.2465186    10.943907063 DailyPattern               ;
 J3745                   1464.4797189    10.943907063 DailyPattern               ;
 J3746                   1508.8769942    10.943907063 DailyPattern               ;
 J3747                   1484.0417476    10.943907063 DailyPattern               ;
 J3760                   1455.3698583    434.14680419 DailyPattern               ;
 J3761                    1515.904775    6.0575900745 DailyPattern               ;
 J3762                   1495.8781084    6.0575900745 DailyPattern               ;
 J3763                   1471.9106308    6.0575900745 DailyPattern               ;
 J3764                   1492.0754184    6.0575900745 DailyPattern               ;
 J3765                   1473.0914111    6.0575900745 DailyPattern               ;
 J3766                   1502.2390376    10.943907063 DailyPattern               ;
 J3767                   1486.2707273    10.943907063 DailyPattern               ;
 J3768                   1459.7512004    10.943907063 DailyPattern               ;
 J3769                   1455.0442659    10.943907063 DailyPattern               ;
 J3770                   1497.3781839    10.943907063 DailyPattern               ;
 J3771                   1532.3897342    10.943907063 DailyPattern               ;
 J3772                   1477.4236568    10.943907063 DailyPattern               ;
 J3773                   1515.7152337    10.943907063 DailyPattern               ;
 J3780                   1482.8922688    434.14680419 DailyPattern               ;
 J3781                   1475.7343871    10.943907063 DailyPattern               ;
 J3782                   1444.6336368    10.943907063 DailyPattern               ;
 J3783                    1524.923006    10.943907063 DailyPattern               ;
 J3785                   1453.8505103    10.943907063 DailyPattern               ;
 J3786                   1500.3468551    10.943907063 DailyPattern               ;
 J3787                   1489.2370438    10.943907063 DailyPattern               ;
 J3801                   1535.9234641    10.943907063 DailyPattern               ;
 J3802                   1524.1542221    10.943907063 DailyPattern               ;
 J3815                   1500.4230729    6.0575900745 DailyPattern               ;
 J3816                   1478.9247454    10.943907063 DailyPattern               ;
 J3817                   1524.6278438    10.943907063 DailyPattern               ;
 J3818                    1524.346735    10.943907063 DailyPattern               ;
 J3819                   1490.5528607    10.943907063 DailyPattern               ;
 J3820                   1478.0989937    10.943907063 DailyPattern               ;
 J3821                   1479.2545732    10.943907063 DailyPattern               ;
 J3823                    1475.870684    10.943907063 DailyPattern               ;
 J3843                   1483.7022413    6.0575900745 DailyPattern               ;
 J3844                   1459.4375471    10.943907063 DailyPattern               ;
 J3845                   1508.1767982    10.943907063 DailyPattern               ;
 J3846                    1539.155273    10.943907063 DailyPattern               ;
 J3847                   1498.9030982    10.943907063 DailyPattern               ;
 J3849                   1450.3068031    10.943907063 DailyPattern               ;
 J3852                   1503.8841045    10.943907063 DailyPattern               ;
 J3867                   1510.0875582    10.943907063 DailyPattern               ;
 J3868                   1508.3490641    10.943907063 DailyPattern               ;
 J3869                   1450.4699613    10.943907063 DailyPattern               ;
 J3871                   1461.4611746    10.943907063 DailyPattern               ;
 J3872                   1459.0038752    10.943907063 DailyPattern               ;
 J3873                   1524.9969307    10.943907063 DailyPattern               ;
 J3874                   1447.6950673    10.943907063 DailyPattern               ;
 J3876                   1460.1250317    10.943907063 DailyPattern               ;
 J3877                   1530.1178034    10.943907063 DailyPattern               ;
 J3884                   1530.7921692    434.14680419 DailyPattern               ;
 J3886                   1533.7684263    10.943907063 DailyPattern               ;
 J3887                    1506.110337    10.943907063 DailyPattern               ;
 J3889                   1483.2556397    10.943907063 DailyPattern               ;
 J3890                   1517.6244635    10.943907063 DailyPattern               ;
 J3891                   1495.8622721    10.943907063 DailyPattern               ;
 J3912                   1444.1974124    10.943907063 DailyPattern               ;
 J3913                   1539.8643163    10.943907063 DailyPattern               ;
 J3914                    1538.623413    10.943907063 DailyPattern               ;
 J3916                   1515.2595985    10.943907063 DailyPattern               ;
 J3918                   1509.6220299    10.943907063 DailyPattern               ;
 J3919                   1522.8441643    10.943907063 DailyPattern               ;
 J3920                   1536.7542236    10.943907063 DailyPattern               ;
 J3921                   1482.9605258    10.943907063 DailyPattern               ;
 J3939                   1484.7255369    6.0575900745 DailyPattern               ;
 J3940                     1518.10528    10.943907063 DailyPattern               ;
 J3943                   1482.2608833    10.943907063 DailyPattern               ;
 J3975                   1532.5698778    6.0575900745 DailyPattern               ;
 J3976                   1480.4516375    6.0575900745 DailyPattern               ;
 J3977                   1497.6904753    10.943907063 DailyPattern               ;
 J3978                   1448.5472215    10.943907063 DailyPattern               ;
 J3980                    1525.495099    10.943907063 DailyPattern               ;
 J3981                   1522.8656961    10.943907063 DailyPattern               ;
 J3983                   1465.8214309    10.943907063 DailyPattern               ;
 J3984                     1524.01299    10.943907063 DailyPattern               ;
 J3985                   1535.1442015    10.943907063 DailyPattern               ;
 J3986                   1452.9554713    10.943907063 DailyPattern               ;
 J3987                    1487.866664    10.943907063 DailyPattern               ;
 J3988                   1476.7835576    10.943907063 DailyPattern               ;
 J3989                   1529.2672364    10.943907063 DailyPattern               ;
 J4006                   1479.1084048    6.0575900745 DailyPattern               ;
 J4007                   1483.7718748    6.0575900745 DailyPattern               ;
 J4008                   1510.4688862    10.943907063 DailyPattern               ;
 J4010                   1446.9822215    10.943907063 DailyPattern               ;
 J4011                   1482.1434281    10.943907063 DailyPattern               ;
 J4012                   1512.1880274    10.943907063 DailyPattern               ;
 J4013                   1462.6084655    10.943907063 DailyPattern               ;
 J4015                   1469.1431894    10.943907063 DailyPattern               ;
 J4029                   1479.0493279    6.0575900745 DailyPattern               ;