[TITLE]

[JUNCTIONS]
;ID                      Elevation       Demand Pattern                 
 J2225                   1489.7081331    9.2569849727 DailyPattern               ;
 J2243                   1541.5456873    9.2569849727 DailyPattern               ;
 J2497                   1528.7641548    9.2569849727 DailyPattern               ;
 J2667                   1507.7073255    9.2569849727 DailyPattern               ;
 J2697                   1474.2648154    9.2569849727 DailyPattern               ;
 J2831                   1508.7697518    9.2569849727 DailyPattern               ;
 J2873                   1484.8538052    9.2569849727 DailyPattern               ;
 J2902                    1443.570699    9.2569849727 DailyPattern               ;
 J2930                   1501.7031989    9.2569849727 DailyPattern               ;
 J2931                   1508.6300119    9.2569849727 DailyPattern               ;
 J2947                   1493.6572069    9.2569849727 DailyPattern               ;
 J2948                   1479.9160863    9.2569849727 DailyPattern               ;
 J2970                   1481.0220843    9.2569849727 DailyPattern               ;
 J2991                    1522.310054    9.2569849727 DailyPattern               ;
 J2992                   1497.9698565    9.2569849727 DailyPattern               ;
 J2993                    1482.600428    9.2569849727 DailyPattern               ;
 J2994                   1456.5336314    9.2569849727 DailyPattern               ;
 J3012                    1473.764101    9.2569849727 DailyPattern               ;
 J3013                    1478.309564    9.2569849727 DailyPattern               ;
 J3033                   1453.5472012    9.2569849727 DailyPattern               ;
 J3034                    1470.917268    9.2569849727 DailyPattern               ;
 J3053                   1471.8630248    9.2569849727 DailyPattern               ;
 J3054                   1508.2108986    9.2569849727 DailyPattern               ;
 J3073                   1470.2522559    9.2569849727 DailyPattern               ;
 J3074                   1502.3951722    9.2569849727 DailyPattern               ;
 J3092                   1482.8446835    9.2569849727 DailyPattern               ;
 J3110                    1506.334145    9.2569849727 DailyPattern               ;
 J3111                   1467.3906247    9.2569849727 DailyPattern               ;
 J3143                   1496.5549813    9.2569849727 DailyPattern               ;
 J3173                   1459.3631182    9.2569849727 DailyPattern               ;
 J3174                   1450.5077374    9.2569849727 DailyPattern               ;
 J3176                   1508.9454775    9.2569849727 DailyPattern               ;
 J3195                   1493.3366949    9.2569849727 DailyPattern               ;
 J3196                    1536.199555    9.2569849727 DailyPattern               ;
 J3197                   1529.8214665    9.2569849727 DailyPattern               ;
 J3218                   1514.3116422    9.2569849727 DailyPattern               ;
 J3219                   1515.6562712    9.2569849727 DailyPattern               ;
 J3220                   1494.2519701    9.2569849727 DailyPattern               ;
 J3226                    1467.342865    9.2569849727 DailyPattern               ;
 J3227                   1478.4387789    9.2569849727 DailyPattern               ;
 J3239                   1498.3804242    9.2569849727 DailyPattern               ;
 J3240                   1484.4923002    9.2569849727 DailyPattern               ;
 J3255                   1457.6288023    9.2569849727 DailyPattern               ;
 J3256                   1511.6870387    9.2569849727 DailyPattern               ;
 J3278                   1476.4069943    9.2569849727 DailyPattern               ;
 J3279                   1521.4788257    9.2569849727 DailyPattern               ;
 J3280                   1487.9882657    9.2569849727 DailyPattern               ;
 J3281                   1461.6248881    9.2569849727 DailyPattern               ;
 J3282                     1527.72054    9.2569849727 DailyPattern               ;
 J3302                    1498.595074    9.2569849727 DailyPattern               ;
 J3320                   1497.5478179    9.2569849727 DailyPattern               ;
 J3321                   1450.1112197    9.2569849727 DailyPattern               ;
 J3322                   1519.0139484    9.2569849727 DailyPattern               ;
 J3323                   1501.0216786    9.2569849727 DailyPattern               ;
 J3324                   1520.5341185    9.2569849727 DailyPattern               ;
 J3325                   1517.5603995    9.2569849727 DailyPattern               ;
 J3345                   1514.0810806    9.2569849727 DailyPattern               ;
 J3364                   1535.9975538    9.2569849727 DailyPattern               ;
 J3373                   1508.7239775    9.2569849727 DailyPattern               ;
 J3392                   1530.9827614    9.2569849727 DailyPattern               ;
 J3393                    1475.586347    9.2569849727 DailyPattern               ;
 J3394                   1532.2468073    9.2569849727 DailyPattern               ;
 J3403                   1475.7190862    9.2569849727 DailyPattern               ;
 J3404                   1517.2097026    9.2569849727 DailyPattern               ;
 J3416                    1474.354789    9.2569849727 DailyPattern               ;
 J3417                   1507.9732945    9.2569849727 DailyPattern               ;
 J3418                   1466.4059889    9.2569849727 DailyPattern               ;
 J3427                   1505.0473144    9.2569849727 DailyPattern               ;
 J3433                   1487.1024087    9.2569849727 DailyPattern               ;
 J3442                   1464.3998588    9.2569849727 DailyPattern               ;
 J3443                   1541.5647417    9.2569849727 DailyPattern               ;
 J3444                    1540.136277    9.2569849727 DailyPattern               ;
 J3462                   1506.1621057    9.2569849727 DailyPattern               ;
 J3463                   1502.5559826    9.2569849727 DailyPattern               ;
 J3464                   1461.2227044    9.2569849727 DailyPattern               ;
 J3480                    1458.696625    9.2569849727 DailyPattern               ;
 J3501                   1522.5695845    9.2569849727 DailyPattern               ;
 J3502                   1541.7228904    9.2569849727 DailyPattern               ;
 J3503                   1446.5248693    9.2569849727 DailyPattern               ;
 J3504                   1531.8929658    9.2569849727 DailyPattern               ;
 J3522                    1470.002838    9.2569849727 DailyPattern               ;
 J3523                   1453.5083438    9.2569849727 DailyPattern               ;
 J3541                   1523.1978649    9.2569849727 DailyPattern               ;
 J3542                   1458.0303731    9.2569849727 DailyPattern               ;
 J3543                   1477.2944698    9.2569849727 DailyPattern               ;
 J3563                   1484.7710572    9.2569849727 DailyPattern               ;
 J3564                    1488.690757    9.2569849727 DailyPattern               ;
 J3584                   1483.6093964    9.2569849727 DailyPattern               ;
 J3606                   1524.8403168    9.2569849727 DailyPattern               ;
 J3624                   1468.1432696    9.2569849727 DailyPattern               ;
 J3629                   1505.3145277    9.2569849727 DailyPattern               ;
 J3670                   1466.9434275    9.2569849727 DailyPattern               ;
 J3675                   1471.2319308    9.2569849727 DailyPattern               ;
 J3690                   1524.9532704    9.2569849727 DailyPattern               ;
 J3692                   1519.8731022    9.2569849727 DailyPattern               ;
 J3694                   1477.5344894    9.2569849727 DailyPattern               ;
 J3706                   1516.3123664    9.2569849727 DailyPattern               ;
 J3707                   1470.8790695    9.2569849727 DailyPattern               ;
 J3708                   1471.2876682    9.2569849727 DailyPattern               ;
 J3709                    1538.388483    9.2569849727 DailyPattern               ;
 J3710                   1444.5818073    9.2569849727 DailyPattern               ;
 J3711                   1514.0469134    9.2569849727 DailyPattern               ;
 J3712                   1513.0819714    9.2569849727 DailyPattern               ;
 J3724                   1480.2338187    9.2569849727 DailyPattern               ;
 J3725                   1534.9701997    9.2569849727 DailyPattern               ;
 J3727                    1452.660157    9.2569849727 DailyPattern               ;
 J3728                    1459.592289    9.2569849727 DailyPattern               ;
 J3730                   1458.3798167    9.2569849727 DailyPattern               ;
 J3731                   1538.8526622    9.2569849727 DailyPattern               ;
 J3745                   1464.4797189    9.2569849727 DailyPattern               ;
 J3746                   1508.8769942    9.2569849727 DailyPattern               ;
 J3747                   1484.0417476    9.2569849727 DailyPattern               ;
 J3767                   1486.2707273    9.2569849727 DailyPattern               ;
 J3768                   1459.7512004    9.2569849727 DailyPattern               ;
 J3769                   1455.0442659    9.2569849727 DailyPattern               ;
 J3770                   1497.3781839    9.2569849727 DailyPattern               ;
 J3771                   1532.3897342    9.2569849727 DailyPattern               ;
 J3772                   1477.4236568    9.2569849727 DailyPattern               ;
 J3773                   1515.7152337    9.2569849727 DailyPattern               ;
 J3782                   1444.6336368    9.2569849727 DailyPattern               ;
 J3783                    1524.923006    9.2569849727 DailyPattern               ;
 J3785                   1453.8505103    9.2569849727 DailyPattern               ;
 J3786                   1500.3468551    9.2569849727 DailyPattern               ;
 J3787                   1489.2370438    9.2569849727 DailyPattern               ;
 J3801                   1535.9234641    9.2569849727 DailyPattern               ;
 J3802                   1524.1542221    9.2569849727 DailyPattern               ;
 J3820                   1478.0989937    9.2569849727 DailyPattern               ;
 J3821                   1479.2545732    9.2569849727 DailyPattern               ;
 J3823                    1475.870684    9.2569849727 DailyPattern               ;
 J3845                   1508.1767982    9.2569849727 DailyPattern               ;
 J3846                    1539.155273    9.2569849727 DailyPattern               ;
 J3847                   1498.9030982    9.2569849727 DailyPattern               ;
 J3849                   1450.3068031    9.2569849727 DailyPattern               ;
 J3852                   1503.8841045    9.2569849727 DailyPattern               ;
 J3873                   1524.9969307    9.2569849727 DailyPattern               ;
 J3874                   1447.6950673    9.2569849727 DailyPattern               ;
 J3876                   1460.1250317    9.2569849727 DailyPattern               ;
 J3877                   1530.1178034    9.2569849727 DailyPattern               ;
 J3891                   1495.8622721    9.2569849727 DailyPattern               ;
 J3918                   1509.6220299    9.2569849727 DailyPattern               ;
 J3919                   1522.8441643    9.2569849727 DailyPattern               ;
 J3920                   1536.7542236    9.2569849727 DailyPattern               ;
 J3921                   1482.9605258    9.2569849727 DailyPattern               ;
 J3943                   1482.2608833    9.2569849727 DailyPattern               ;
 J3980                    1525.495099    9.2569849727 DailyPattern               ;
 J3981                   1522.8656961    9.2569849727 DailyPattern               ;
 J3983                   1465.8214309    9.2569849727 DailyPattern               ;
 J3984                     1524.01299    9.2569849727 DailyPattern               ;
 J3985                   1535.1442015    9.2569849727 DailyPattern               ;
 J3986                   1452.9554713    9.2569849727 DailyPattern               ;
 J3987                    1487.866664    9.2569849727 DailyPattern               ;
 J3988                   1476.7835576    9.2569849727 DailyPattern               ;
 J3989                   1529.2672364    9.2569849727 DailyPattern               ;
 J4010                   1446.9822215    9.2569849727 DailyPattern               ;
 J4011                   1482.1434281    9.2569849727 DailyPattern               ;
 J4012                   1512.1880274    9.2569849727 DailyPattern               ;
 J4013                   1462.6084655    9.2569849727 DailyPattern               ;
 J4015                   1469.1431894    9.2569849727 DailyPattern               ;
 J4031                   1470.2077371    9.2569849727 DailyPattern               ;
 J4032                   1451.5645966    9.2569849727 DailyPattern               ;
 J4033                   1541.2646124    9.2569849727 DailyPattern               ;
 J4034                    1458.943718    9.2569849727 DailyPattern               ;
 J4035                   1540.8550847    9.2569849727 DailyPattern               ;
 J4036                   1539.7585235    9.2569849727 DailyPattern               ;
 J4070                   1475.4917366    9.2569849727 DailyPattern               ;
 J4071                      1510.1526    9.2569849727 DailyPattern               ;
 J4096                   1444.9162482    9.2569849727 DailyPattern               ;
 J4097                   1451.6009239    9.2569849727 DailyPattern               ;
 J4098                   1469.0214821    9.2569849727 DailyPattern               ;
 J4121                   1495.2890722    9.2569849727 DailyPattern               ;
 J4122                   1512.2538831    9.2569849727 DailyPattern               ;
 J4123                   1532.1782262    9.2569849727 DailyPattern               ;
 J4144                   1533.9630127    9.2569849727 DailyPattern               ;
 J4145                   1507.5250702    9.2569849727 DailyPattern               ;
 J4166                   1467.2210423    9.2569849727 DailyPattern               ;
 J4167                   1452.9165297    9.2569849727 DailyPattern               ;
 J4168                   1474.5654637    9.2569849727 DailyPattern               ;
 J4170                    1460.980671    9.2569849727 DailyPattern               ;
 J4171                   1540.7483096    9.2569849727 DailyPattern               ;
 J4193                    1515.444474    9.2569849727 DailyPattern               ;
 J4194                   1504.5117522    9.2569849727 DailyPattern               ;
 J4195                   1461.9396266    9.2569849727 DailyPattern               ;
 J4196                   1446.0980622    9.2569849727 DailyPattern               ;
 J4197                   1471.5755957    9.2569849727 DailyPattern               ;
 J4200                   1527.2269682    9.2569849727 DailyPattern               ;
 J4201                   1462.8850771    9.2569849727 DailyPattern               ;
 J4203                   1538.4002573    9.2569849727 DailyPattern               ;
 J4204                   1454.2038608    9.2569849727 DailyPattern               ;
 J4221                   1503.9669852    9.2569849727 DailyPattern               ;
 J4222                   1531.9490118    9.2569849727 DailyPattern               ;
 J4224                   1500.9642604    9.2569849727 DailyPattern               ;
 J4227                   1506.6567121    9.2569849727 DailyPattern               ;
 J4262                   1484.3988506    9.2569849727 DailyPattern               ;
 J4264                   1508.4996988    9.2569849727 DailyPattern               ;
 J4267                    1449.617417    9.2569849727 DailyPattern               ;
 J4290                   1496.7466102    9.2569849727 DailyPattern               ;
 J4291                   1451.3727314    9.2569849727 DailyPattern               ;
 J4293                   1532.9414579    9.2569849727 DailyPattern               ;
 J4294                    1482.576702    9.2569849727 DailyPattern               ;
 J4295                   1472.7354792    9.2569849727 DailyPattern               ;
 J4299                   1502.1994578    9.2569849727 DailyPattern               ;
 J4349                   1505.7210098    9.2569849727 DailyPattern               ;
 J4350                   1520.7748169    9.2569849727 DailyPattern               ;
 J4369                   1461.7249722    9.2569849727 DailyPattern               ;
 J4370                   1463.4803756    9.2569849727 DailyPattern               ;
 J4371                    1481.631272    9.2569849727 DailyPattern               ;
 J4372                   1448.6040229    9.2569849727 DailyPattern               ;
 J4388                   1453.2159795    9.2569849727 DailyPattern               ;
 J4389                   1447.9067449    9.2569849727 DailyPattern               ;
 J4390                   1461.8054643    9.2569849727 DailyPattern               ;
 J4391                    1496.844171    9.2569849727 DailyPattern               ;
 J4392                   1507.1101228    9.2569849727 DailyPattern               ;
 J4404                    1540.961811    9.2569849727 DailyPattern               ;
 J4405                   1510.9233185    9.2569849727 DailyPattern               ;
 J4417                   1445.9322551    9.2569849727 DailyPattern               ;
 J4418                   1476.5785702    9.2569849727 DailyPattern               ;
 J4419                   1460.9989097    9.2569849727 DailyPattern               ;
 J4420                    1453.256974    9.2569849727 DailyPattern               ;
 J4421                   1537.7349508    9.2569849727 DailyPattern               ;
 J4422                   1502.5616527    9.2569849727 DailyPattern               ;
 J4441                   1525.3237625    9.2569849727 DailyPattern               ;
 J4442                   1465.6815024    9.2569849727 DailyPattern               ;
 J4443                   1482.8739416    9.2569849727 DailyPattern               ;
 J4444                   1483.8916866    9.2569849727 DailyPattern               ;
 J4445                   1539.8511157    9.2569849727 DailyPattern               ;
 J4471                   1541.1613625    9.2569849727 DailyPattern               ;
 J4472                   1464.0730371    9.2569849727 DailyPattern               ;
 J4494                   1515.9145524    9.2569849727 DailyPattern               ;
 J4495                   1503.6195461    9.2569849727 DailyPattern               ;
 J4496                   1491.6185376    9.2569849727 DailyPattern               ;
 J4497                   1456.6780307    9.2569849727 DailyPattern               ;
 J4498                   1469.2913075    9.2569849727 DailyPattern               ;
 J4514                   1497.7557428    9.2569849727 DailyPattern               ;
 J4515                   1483.6645857    9.2569849727 DailyPattern               ;
 J4516                   1494.8861898    9.2569849727 DailyPattern               ;
 J4534                    1498.208706    9.2569849727 DailyPattern               ;
 J4535                   1501.4427457    9.2569849727 DailyPattern               ;
 J4536                   1485.5478754    9.2569849727 DailyPattern               ;
 J4539                   1452.2101283    9.2569849727 DailyPattern               ;
 J4548                    1509.403858    9.2569849727 DailyPattern               ;
 J4549                   1522.1774062    9.2569849727 DailyPattern               ;
 J4550                   1535.3759454    9.2569849727 DailyPattern               ;
 J4553                   1530.7911379    9.2569849727 DailyPattern               ;
 J4555                   1499.1394986    9.2569849727 DailyPattern               ;
 J4556                   1508.8281368    9.2569849727 DailyPattern               ;
 J4573                   1518.1798315    9.2569849727 DailyPattern               ;
 J4574                   1518.3732492    9.2569849727 DailyPattern               ;
 J4575                   1474.3370759    9.2569849727 DailyPattern               ;
 J4576                   1483.9910728    9.2569849727 DailyPattern               ;
 J4577                   1464.2083606    9.2569849727 DailyPattern               ;
 J4578                   1539.6877648    9.2569849727 DailyPattern               ;
 J4579                   1507.1131145    9.2569849727 DailyPattern               ;
 J4580                   1535.5522192    9.2569849727 DailyPattern               ;
 J4582                   1520.5273208    9.2569849727 DailyPattern               ;
 J4583                   1518.9493416    9.2569849727 DailyPattern               ;
 J4584                   1511.6458975    9.2569849727 DailyPattern               ;
 J4585                     1538.61276    9.2569849727 DailyPattern               ;
 J4602                   1533.0629292    9.2569849727 DailyPattern               ;
 J4603                   1480.0097296    9.2569849727 DailyPattern               ;
 J4607                   1461.5629976    9.2569849727 DailyPattern               ;
 J4608                   1537.6927705    9.2569849727 DailyPattern               ;
 J4641                   1474.3687219    9.2569849727 DailyPattern               ;
 J4642                   1528.0682206    9.2569849727 DailyPattern               ;
 J4643                   1456.5308632    9.2569849727 DailyPattern               ;
 J4644                   1512.9633438    9.2569849727 DailyPattern               ;
 J4645                   1516.5988579    9.2569849727 DailyPattern               ;
 J4668                   1509.6141385    9.2569849727 DailyPattern               ;
 J4674                   1483.7051871    9.2569849727 DailyPattern               ;
 J4691                   1478.7262796    9.2569849727 DailyPattern               ;
 J4692                    1477.436839    9.2569849727 DailyPattern               ;
 J4693                   1494.8041835    9.2569849727 DailyPattern               ;
 J4694                   1486.9420817    9.2569849727 DailyPattern               ;
 J4695                   1530.1753242    9.2569849727 DailyPattern               ;
 J4696                   1493.3255372    9.2569849727 DailyPattern               ;
 J4697                    1493.545719    9.2569849727 DailyPattern               ;
 J4698                   1457.1888053    9.2569849727 DailyPattern               ;
 J4711                   1488.6511106    9.2569849727 DailyPattern               ;
 J4712                   1468.8301057    9.2569849727 DailyPattern               ;
 J4740                   1514.3095256    9.2569849727 DailyPattern               ;
 J4741                   1454.4557348    9.2569849727 DailyPattern               ;
 J4754                    1528.357515    9.2569849727 DailyPattern               ;
 J4756                    1444.545016    9.2569849727 DailyPattern               ;
 J4757                   1520.1489147    9.2569849727 DailyPattern               ;
 J4758                   1488.9173491    9.2569849727 DailyPattern               ;
 J4759                   1540.8963787    9.2569849727 DailyPattern               ;
 J4761                   1540.7049815    9.2569849727 DailyPattern               ;
 J4762                   1517.8381917    9.2569849727 DailyPattern               ;
 J4772                    1466.675304    9.2569849727 DailyPattern               ;
 J4773                    1524.166923    9.2569849727 DailyPattern               ;
 J4774                   1476.7713854    9.2569849727 DailyPattern               ;
 J4775                   1525.0187363    9.2569849727 DailyPattern               ;
 J4776                   1443.6284061    9.2569849727 DailyPattern               ;
 J4792                   1449.4974027    9.2569849727 DailyPattern               ;
 J4793                    1472.865841    9.2569849727 DailyPattern               ;
 J4794                   1472.9067783    9.2569849727 DailyPattern               ;
 J4795                   1475.1051135    9.2569849727 DailyPattern               ;
 J4812                   1444.8716023    9.2569849727 DailyPattern               ;
 J4813                    1493.941646    9.2569849727 DailyPattern               ;
 J4814                   1519.3020912    9.2569849727 DailyPattern               ;
 J4817                   1524.2412929    9.2569849727 DailyPattern               ;
 J4827                   1460.0623234    9.2569849727 DailyPattern               ;
 J4829                   1493.1113974    9.2569849727 DailyPattern               ;
 J4831                   1516.3519587    9.2569849727 DailyPattern               ;
 J4832                   1507.1063999    9.2569849727 DailyPattern               ;
 J4833                   1458.9015676    9.2569849727 DailyPattern               ;
 J4834                   1497.4125996    9.2569849727 DailyPattern               ;
 J4835                    1452.176493    9.2569849727 DailyPattern               ;
 J4850                    1540.150024    9.2569849727 DailyPattern               ;
 J4851                   1481.1302329    9.2569849727 DailyPattern               ;
 J4852                   1519.8721659    9.2569849727 DailyPattern               ;
 J4853                   1477.2891486    9.2569849727 DailyPattern               ;
 J4854                   1505.3479866    9.2569849727 DailyPattern               ;
 J4862                   1450.3645279    9.2569849727 DailyPattern               ;
 J4863                   1476.5212312    9.2569849727 DailyPattern               ;
 J4864                   1474.4458456    9.2569849727 DailyPattern               ;
 J4865                   1506.1330697    9.2569849727 DailyPattern               ;
 J4866                   1478.6047677    9.2569849727 DailyPattern               ;
 J4867                    1458.186363    9.2569849727 DailyPattern               ;
 J4868                   1502.2769431    9.2569849727 DailyPattern               ;
 J4893                   1467.2707168    9.2569849727 DailyPattern               ;
 J4894                   1481.6411327    9.2569849727 DailyPattern               ;
 J4903                   1473.8529288    9.2569849727 DailyPattern               ;
 J4904                   1534.7171483    9.2569849727 DailyPattern               ;
 J4912                   1496.1836502    9.2569849727 DailyPattern               ;
 J4913                    1462.807546    9.2569849727 DailyPattern               ;
 J4914                   1459.9307115    9.2569849727 DailyPattern               ;
 J4915                   1533.7751789    9.2569849727 DailyPattern               ;
 J4936                   1533.0920413    9.2569849727 DailyPattern               ;
 J4937                   1499.5691092    9.2569849727 DailyPattern               ;
 J4938                   1518.5867376    9.2569849727 DailyPattern               ;
 J4939                   1523.4717899    9.2569849727 DailyPattern               ;
 J4940                    1477.216113    9.2569849727 DailyPattern               ;
 J4941                   1486.2560037    9.2569849727 DailyPattern               ;
 J4943                   1479.3230333    9.2569849727 DailyPattern               ;
 J4944                   1521.7127756    9.2569849727 DailyPattern               ;
 J4945                   1536.1869084    9.2569849727 DailyPattern               ;
 J4946                   1504.9091575    9.2569849727 DailyPattern               ;
 J4947                   1516.5643656    9.2569849727 DailyPattern               ;
 J4948                   1522.8114152    9.2569849727 DailyPattern               ;
 J4957                   1506.0443708    9.2569849727 DailyPattern               ;
 J4958                   1461.9179598    9.2569849727 DailyPattern               ;
 J4959                   1517.3263881    9.2569849727 DailyPattern               ;
 J4960                    1497.279787    9.2569849727 DailyPattern               ;
 J4961                   1463.6546314    9.2569849727 DailyPattern               ;
 J4962                   1472.3009685    9.2569849727 DailyPattern               ;
 J4964                   1491.0696754    9.2569849727 DailyPattern               ;
 J4965                   1464.8324909    9.2569849727 DailyPattern               ;
 J4966                   1538.7734111    9.2569849727 DailyPattern               ;
 J4967                   1513.9558747    9.2569849727 DailyPattern               ;
 J4968                   1537.7757381    9.2569849727 DailyPattern               ;
 J4969                    1485.607452    9.2569849727 DailyPattern               ;
 J4979                   1447.4342242    9.2569849727 DailyPattern               ;
 J4980                   1539.7589065    9.2569849727 DailyPattern               ;
 J4981                    1467.423264    9.2569849727 DailyPattern               ;
 J4982                    1508.856041    9.2569849727 DailyPattern               ;
 J4983                   1526.1581068    9.2569849727 DailyPattern               ;
 J4984                   1497.7684179    9.2569849727 DailyPattern               ;
 J4985                   1458.6428314    9.2569849727 DailyPattern               ;
 J4986                   1515.2345575    9.2569849727 DailyPattern               ;
 J4987                    1502.649417    9.2569849727 DailyPattern               ;