[TITLE]

[JUNCTIONS]
;ID                      Elevation       Demand Pattern                 
 J5286                     1540.39156    15.850323141 DailyPattern               ;
 J5287                   1448.5080725    15.850323141 DailyPattern               ;
 J5288                   1453.0867349    15.850323141 DailyPattern               ;
 J5289                   1514.4806504    15.850323141 DailyPattern               ;
 J5290                   1471.3082352    15.850323141 DailyPattern               ;
 J5291                   1461.7094551    15.850323141 DailyPattern               ;
 J5292                   1447.4437546    15.850323141 DailyPattern               ;
 J5293                   1445.7198207    15.850323141 DailyPattern               ;
 J5294                   1519.7984518    15.850323141 DailyPattern               ;
 J5295                   1456.8011904    15.850323141 DailyPattern               ;
 J5296                   1489.6050475    15.850323141 DailyPattern               ;
 J5299                   1446.2375314    15.850323141 DailyPattern               ;
 J5300                   1520.6858434    15.850323141 DailyPattern               ;
 J5322                   1483.4286667    15.850323141 DailyPattern               ;
 J5323                   1541.8759451    15.850323141 DailyPattern               ;
 J5340                   1523.3612438    15.850323141 DailyPattern               ;
 J5341                   1536.9130137    15.850323141 DailyPattern               ;
 J5355                   1483.4952683    15.850323141 DailyPattern               ;
 J5357                   1539.7759084    15.850323141 DailyPattern               ;
 J5359                   1492.6180802    15.850323141 DailyPattern               ;
 J5361                   1465.9377677    15.850323141 DailyPattern               ;
 J5653                   1478.2625702    15.850323141 DailyPattern               ;
 J5654                   1455.9819693    15.850323141 DailyPattern               ;
 J5655                   1456.3507559    15.850323141 DailyPattern               ;
 J5663                   1500.5337739    15.850323141 DailyPattern               ;
 J5664                   1504.4243787    15.850323141 DailyPattern               ;
 J5665                   1520.4851137    15.850323141 DailyPattern               ;
 J5666                   1512.7897534    15.850323141 DailyPattern               ;
 J5667                   1525.7012716    15.850323141 DailyPattern               ;
 J5668                   1449.1024185    15.850323141 DailyPattern               ;
 J5669                   1517.1444196    15.850323141 DailyPattern               ;
 J5670                   1527.3149039    15.850323141 DailyPattern               ;
 J5671                   1471.7324517    15.850323141 DailyPattern               ;
 J5673                   1474.4910168    15.850323141 DailyPattern               ;
 J5676                   1500.6357786    15.850323141 DailyPattern               ;
 J5677                   1459.9576982    15.850323141 DailyPattern               ;
 J5680                   1466.7371977    15.850323141 DailyPattern               ;
 J5703                   1468.4044696    15.850323141 DailyPattern               ;
 J5704                   1533.6571464    15.850323141 DailyPattern               ;
 J5705                   1469.7197078    15.850323141 DailyPattern               ;
 J5720                   1453.8707782    15.850323141 DailyPattern               ;
 J5721                   1485.1978554    15.850323141 DailyPattern               ;
 J5740                   1531.2638338    15.850323141 DailyPattern               ;
 J5741                   1499.6224336    15.850323141 DailyPattern               ;
 J5784                   1445.2341995    15.850323141 DailyPattern               ;
 J5812                   1524.3617791    15.850323141 DailyPattern               ;
 J5813                   1471.2740127    15.850323141 DailyPattern               ;
 J8699                   1500.0067217    15.850323141 DailyPattern               ;
 J9011                   1479.6874506    15.850323141 DailyPattern               ;
 J9016                   1453.7835999    15.850323141 DailyPattern               ;
 J9135                   1497.9221404    15.850323141 DailyPattern               ;
 J9136                   1508.6260322    15.850323141 DailyPattern               ;
 J9137                    1475.351155    15.850323141 DailyPattern               ;
 J9154                   1460.2136385    15.850323141 DailyPattern               ;
 J9156                   1535.3653921    15.850323141 DailyPattern               ;
 J9157                   1503.1118779    15.850323141 DailyPattern               ;
 J9158                   1508.4799926    15.850323141 DailyPattern               ;
 J9159                   1483.1161749    15.850323141 DailyPattern               ;
 J9175                   1463.2420907    15.850323141 DailyPattern               ;
 J9176                   1466.3903819    15.850323141 DailyPattern               ;
 J9177                   1522.1072693    15.850323141 DailyPattern               ;
 J9675                   1500.6530007    15.850323141 DailyPattern               ;
 J9677                   1450.3363798    15.850323141 DailyPattern               ;
 J9682                    1474.379136    15.850323141 DailyPattern               ;
 J10117                  1503.8641215    15.850323141 DailyPattern               ;
 J10118                  1452.8422274    15.850323141 DailyPattern               ;
 J10123                  1514.2911402    15.850323141 DailyPattern               ;
 J10344                  1532.6520467    15.850323141 DailyPattern               ;
 J10350                  1500.4917096    15.850323141 DailyPattern               ;
 J10351                  1511.4071263    15.850323141 DailyPattern               ;
 J10352                   1454.089571    15.850323141 DailyPattern               ;
 J10411                  1520.8533006    15.850323141 DailyPattern               ;
 J10442                  1527.5246689    15.850323141 DailyPattern               ;
 J10443                  1539.3231566    15.850323141 DailyPattern               ;
 J10444                   1469.815242    15.850323141 DailyPattern               ;
 J10557                  1528.0470475    15.850323141 DailyPattern               ;
 J10558                  1474.0581939    15.850323141 DailyPattern               ;
 J10559                  1539.1696975    15.850323141 DailyPattern               ;
 J10560                  1455.1699582    15.850323141 DailyPattern               ;
 J10562                  1452.5274088    15.850323141 DailyPattern               ;
 J10578                  1456.1061715    15.850323141 DailyPattern               ;
 J10579                  1524.6447788    15.850323141 DailyPattern               ;
 J10714                  1539.2894832    15.850323141 DailyPattern               ;
 J10731                  1527.4637811    15.850323141 DailyPattern               ;
 J10863                  1493.4220342    15.850323141 DailyPattern               ;
 J10864                  1452.0154959    15.850323141 DailyPattern               ;
 J10878                  1453.4348961    15.850323141 DailyPattern               ;
 J10975                  1487.6767093    15.850323141 DailyPattern               ;
 J11079                   1524.195981    15.850323141 DailyPattern               ;
 J11080                  1541.6153454    15.850323141 DailyPattern               ;
 J11081                  1476.0048032    15.850323141 DailyPattern               ;
 J11083                  1504.4000188    15.850323141 DailyPattern               ;
 J11085                  1482.1551379    15.850323141 DailyPattern               ;
 J11359                  1501.6187271    15.850323141 DailyPattern               ;
 J11396                  1518.7301754    15.850323141 DailyPattern               ;
 J11444                  1491.2283201    15.850323141 DailyPattern               ;
 J11537                  1493.4092855    15.850323141 DailyPattern               ;
 J11538                  1502.0444198    15.850323141 DailyPattern               ;
 J11601                  1525.8995924    15.850323141 DailyPattern               ;
 J11610                  1532.5025561    15.850323141 DailyPattern               ;
 J11611                  1467.0918558    15.850323141 DailyPattern               ;
 J11612                  1463.8956527    15.850323141 DailyPattern               ;
 J11614                  1446.0305885    15.850323141 DailyPattern               ;
 J11627                  1491.3615028    15.850323141 DailyPattern               ;
 J11628                  1477.3187754    15.850323141 DailyPattern               ;
 J11642                  1486.3825654    15.850323141 DailyPattern               ;
 J11643                   1515.153459    15.850323141 DailyPattern               ;
 J11652                  1450.8493951    15.850323141 DailyPattern               ;
 J11653                  1460.7936511    15.850323141 DailyPattern               ;
 J11665                  1478.5439345    15.850323141 DailyPattern               ;
 J11666                   1500.092229    15.850323141 DailyPattern               ;
 J11667                  1525.5633472    15.850323141 DailyPattern               ;
 J11668                  1511.2972975    15.850323141 DailyPattern               ;
 J11670                  1476.7098755    15.850323141 DailyPattern               ;
 J11671                  1457.7896027    15.850323141 DailyPattern               ;
 J11674                   1447.200783    15.850323141 DailyPattern               ;
 J11676                  1474.0389782    15.850323141 DailyPattern               ;
 J11677                    1504.28649    15.850323141 DailyPattern               ;
 J11743                  1540.5122574    15.850323141 DailyPattern               ;
 J11745                  1459.7757239    15.850323141 DailyPattern               ;
 J11746                  1444.1201597    15.850323141 DailyPattern               ;
 J11747                  1447.7805054    15.850323141 DailyPattern               ;
 J11748                   1467.591547    15.850323141 DailyPattern               ;
 J11749                  1454.8186961    15.850323141 DailyPattern               ;
 J11751                  1528.0179025    15.850323141 DailyPattern               ;
 J11752                  1516.0843393    15.850323141 DailyPattern               ;
 J11761                  1454.5735274    15.850323141 DailyPattern               ;
 J11762                   1499.208231    15.850323141 DailyPattern               ;
 J11781                  1498.8467349    15.850323141 DailyPattern               ;
 J11782                  1513.9293938    15.850323141 DailyPattern               ;
 J11788                  1485.8782516    15.850323141 DailyPattern               ;
 J11789                  1506.7162364    15.850323141 DailyPattern               ;
 J11792                  1541.2070547    15.850323141 DailyPattern               ;
 J11796                  1465.7191994    15.850323141 DailyPattern               ;
 J11798                   1456.618981    15.850323141 DailyPattern               ;
 J11813                  1459.4821853    15.850323141 DailyPattern               ;
 J11814                   1467.244267    15.850323141 DailyPattern               ;
 J11815                  1494.3123682    15.850323141 DailyPattern               ;
 J11816                  1499.6428444    15.850323141 DailyPattern               ;
 J11846                  1532.4476134    15.850323141 DailyPattern               ;
 J11847                  1523.6943852    15.850323141 DailyPattern               ;
 J12028                  1487.6533476    15.850323141 DailyPattern               ;
 J12032                  1518.0785959    15.850323141 DailyPattern               ;
 J12033                  1497.1023979    15.850323141 DailyPattern               ;
 J12034                  1529.8734686    15.850323141 DailyPattern               ;
 J12035                  1497.0679706    15.850323141 DailyPattern               ;
 J12040                  1504.9384327    15.850323141 DailyPattern               ;
 J12042                  1526.6803424    15.850323141 DailyPattern               ;
 J12043                  1488.1856698    15.850323141 DailyPattern               ;
 J12044                  1515.0696875    15.850323141 DailyPattern               ;
 J12045                  1452.9727238    15.850323141 DailyPattern               ;
 J12046                   1482.548328    15.850323141 DailyPattern               ;
 J12047                  1540.3452857    15.850323141 DailyPattern               ;
 J12048                  1523.1424169    15.850323141 DailyPattern               ;
 J12052                  1507.5819121    15.850323141 DailyPattern               ;
 J12053                   1518.076912    15.850323141 DailyPattern               ;
 J12055                  1493.7540082    15.850323141 DailyPattern               ;
 J12056                  1523.3747249    15.850323141 DailyPattern               ;
 J12057                  1486.5890501    15.850323141 DailyPattern               ;
 J12058                  1455.7625228    15.850323141 DailyPattern               ;
 J12059                  1499.1248532    15.850323141 DailyPattern               ;
 J12060                   1537.300005    15.850323141 DailyPattern               ;
 J12061                    1521.62011    15.850323141 DailyPattern               ;
 J12062                   1500.528279    15.850323141 DailyPattern               ;
 J12064                  1535.1603045    15.850323141 DailyPattern               ;
 J12066                  1476.1870872    15.850323141 DailyPattern               ;
 J12067                  1539.7547472    15.850323141 DailyPattern               ;
 J12068                  1528.5541142    15.850323141 DailyPattern               ;
 J12069                  1475.3651822    15.850323141 DailyPattern               ;
 J12070                  1489.2172504    15.850323141 DailyPattern               ;
 J12071                  1484.4237004    15.850323141 DailyPattern               ;
 J12072                  1458.2443253    15.850323141 DailyPattern               ;
 J12073                  1537.8431093    15.850323141 DailyPattern               ;
 J12074                  1483.3640844    15.850323141 DailyPattern               ;
 J12075                  1529.7239911    15.850323141 DailyPattern               ;
 J12076                  1462.2069778    15.850323141 DailyPattern               ;
 J12077                  1497.4938462    15.850323141 DailyPattern               ;
 J12078                  1445.9279579    15.850323141 DailyPattern               ;
 J12079                  1518.7881054    15.850323141 DailyPattern               ;
 J12081                  1505.1433317    15.850323141 DailyPattern               ;
 J12082                  1448.6601919    15.850323141 DailyPattern               ;
 J12083                   1464.341043    15.850323141 DailyPattern               ;
 J12084                  1450.8855845    15.850323141 DailyPattern               ;
 J12085                  1472.0060022    15.850323141 DailyPattern               ;
 J12086                  1505.3253616    15.850323141 DailyPattern               ;
 J12087                  1499.2965208    15.850323141 DailyPattern               ;
 J12088                  1503.8205205    15.850323141 DailyPattern               ;
 J12089                  1497.6297183    15.850323141 DailyPattern               ;
 J12090                  1470.4424668    15.850323141 DailyPattern               ;
 J12091                  1467.6352524    15.850323141 DailyPattern               ;
 J12092                  1457.0596801    15.850323141 DailyPattern               ;
 J12093                  1527.1395218    15.850323141 DailyPattern               ;
 J12108                  1485.5531025    15.850323141 DailyPattern               ;
 J12116                  1490.1281291    15.850323141 DailyPattern               ;
 J12117                  1522.5127191    15.850323141 DailyPattern               ;
 J12118                  1521.2222011    15.850323141 DailyPattern               ;
 J12119                  1518.3724237    15.850323141 DailyPattern               ;
 J12129                  1489.1907625    15.850323141 DailyPattern               ;
 J12130                  1503.9426274    15.850323141 DailyPattern               ;
 J12131                  1470.3934878    15.850323141 DailyPattern               ;
 J12132                  1470.5551697    15.850323141 DailyPattern               ;
 J12133                  1454.7461821    15.850323141 DailyPattern               ;
 J12134                  1454.7949768    15.850323141 DailyPattern               ;
 J12135                  1477.7892134    15.850323141 DailyPattern               ;
 J12136                  1518.6537544    15.850323141 DailyPattern               ;
 J12137                  1503.4092357    15.850323141 DailyPattern               ;
 J12138                  1453.6664594    15.850323141 DailyPattern               ;
 J12140                  1502.7592809    15.850323141 DailyPattern               ;
 J12141                  1538.1419531    15.850323141 DailyPattern               ;
 J12142                  1509.5326904    15.850323141 DailyPattern               ;
 J12143                  1460.8111742    15.850323141 DailyPattern               ;
 J12145                  1507.3980575    15.850323141 DailyPattern               ;
 J12146                  1446.3515126    15.850323141 DailyPattern               ;
 J12147                  1445.0370995    15.850323141 DailyPattern               ;
 J12148                  1456.3060696    15.850323141 DailyPattern               ;
 J12149                  1468.3396754    15.850323141 DailyPattern               ;
 J12150                  1485.8480108    15.850323141 DailyPattern               ;
 J12151                  1491.5459784    15.850323141 DailyPattern               ;
 J12152                  1457.1549484    15.850323141 DailyPattern               ;
 J12153                  1509.8482525    15.850323141 DailyPattern               ;
 J12154                  1502.2445599    15.850323141 DailyPattern               ;
 J12156                  1444.9140305    15.850323141 DailyPattern               ;
 J12157                  1451.2120652    15.850323141 DailyPattern               ;
 J12159                  1458.7245096    15.850323141 DailyPattern               ;
 J12160                  1480.6580977    15.850323141 DailyPattern               ;
 J12161                  1505.3985503    15.850323141 DailyPattern               ;
 J12162                  1497.4315054    15.850323141 DailyPattern               ;
 J12163                  1466.3230856    15.850323141 DailyPattern               ;
 J12164                  1477.4103502    15.850323141 DailyPattern               ;
 J12165                  1504.0056954    15.850323141 DailyPattern               ;
 J12166                  1528.2993794    15.850323141 DailyPattern               ;
 J12167                  1517.7047348    15.850323141 DailyPattern               ;
 J12168                  1498.0380604    15.850323141 DailyPattern               ;
 J12169                  1479.2283135    15.850323141 DailyPattern               ;
 J12170                  1479.4997977    15.850323141 DailyPattern               ;
 J12171                  1530.1263757    15.850323141 DailyPattern               ;
 J12172                  1447.4321105    15.850323141 DailyPattern               ;
 J12173                  1540.8119401    15.850323141 DailyPattern               ;
 J12174                  1508.9608344    15.850323141 DailyPattern               ;
 J12175                  1510.6106659    15.850323141 DailyPattern               ;
 J12176                  1447.3094984    15.850323141 DailyPattern               ;
 J12177                  1503.1688919    15.850323141 DailyPattern               ;
 J12178                  1491.2839298    15.850323141 DailyPattern               ;
 J12179                  1453.9808635    15.850323141 DailyPattern               ;
 J12181                  1531.1989294    15.850323141 DailyPattern               ;
 J12182                  1497.7022719    15.850323141 DailyPattern               ;
 J12185                  1513.8571057    15.850323141 DailyPattern               ;
 J12264                  1520.0293343    15.850323141 DailyPattern               ;
 J12265                  1480.1263365    15.850323141 DailyPattern               ;
 J12277                  1502.7694653    15.850323141 DailyPattern               ;
 J12279                  1481.8731578    15.850323141 DailyPattern               ;
 J12287                  1472.3535559    15.850323141 DailyPattern               ;
 J12289                  1444.6948173    15.850323141 DailyPattern               ;
 J12290                  1485.6414567    15.850323141 DailyPattern               ;
 J12291                  1483.9571123    15.850323141 DailyPattern               ;
 J12292                  1540.8520222    15.850323141 DailyPattern               ;
 J12296                  1491.9030134    15.850323141 DailyPattern               ;
 J12300                  1536.5049548    15.850323141 DailyPattern               ;
 J12301                  1501.5917373    15.850323141 DailyPattern               ;
 J12314                  1510.9130253    15.850323141 DailyPattern               ;
 J12316                  1484.8741547    15.850323141 DailyPattern               ;
 J12317                  1462.0906804    15.850323141 DailyPattern               ;
 J12320                  1486.0600045    15.850323141 DailyPattern               ;
 J12321                  1538.9779804    15.850323141 DailyPattern               ;
 J12327                  1454.6529346    15.850323141 DailyPattern               ;
 J12329                  1462.7260151    15.850323141 DailyPattern               ;
 J12330                  1503.9019693    15.850323141 DailyPattern               ;
 J12416                  1454.6139966    15.850323141 DailyPattern               ;
 J12421                  1486.3274414    15.850323141 DailyPattern               ;
 J12424                  1510.4039205    15.850323141 DailyPattern               ;
 J12427                  1501.9954225    15.850323141 DailyPattern               ;
 J12428                  1469.8830097    15.850323141 DailyPattern               ;
 J12433                  1498.9123198    15.850323141 DailyPattern               ;
 J12467                  1457.0237934    15.850323141 DailyPattern               ;
 J12468                  1497.8343717    15.850323141 DailyPattern               ;
 J12469                  1503.1562046    15.850323141 DailyPattern               ;
 J12471                  1510.5196887    15.850323141 DailyPattern               ;
 J12472                  1472.3425175    15.850323141 DailyPattern               ;
 J12473                  1476.0804795    15.850323141 DailyPattern               ;
 J12474                  1510.6477561    15.850323141 DailyPattern               ;
 J12475                  1477.9640066    15.850323141 DailyPattern               ;
 J12476                  1464.4970331    15.850323141 DailyPattern               ;
 J12477                  1480.4136634    15.850323141 DailyPattern               ;
 J12478                  1470.3494906    15.850323141 DailyPattern               ;
 J12479                  1452.2617508    15.850323141 DailyPattern               ;
 J12480                  1525.2761387    15.850323141 DailyPattern               ;
 J12481                  1527.5372102    15.850323141 DailyPattern               ;
 J12482                  1465.1985204    15.850323141 DailyPattern               ;
 J12483                  1449.9447703    15.850323141 DailyPattern               ;
 J12484                  1516.2887898    15.850323141 DailyPattern               ;
 J12485                  1464.3893004    15.850323141 DailyPattern               ;
 J12486                  1482.2935193    15.850323141 DailyPattern               ;
 J12487                  1449.8820786    15.850323141 DailyPattern               ;
 J12488                  1465.8401822    15.850323141 DailyPattern               ;
 J12489                  1521.6111166    15.850323141 DailyPattern               ;
 J12490                  1522.7424324    15.850323141 DailyPattern               ;
 J12491                  1463.9519185    15.850323141 DailyPattern               ;
 J12493                  1456.7819966    15.850323141 DailyPattern               ;
 J12494                  1450.8700095    15.850323141 DailyPattern               ;
 J12495                  1541.2242501    15.850323141 DailyPattern               ;
 J12496                  1508.0965175    15.850323141 DailyPattern               ;
 J12497                  1496.9255094    15.850323141 DailyPattern               ;
 J12498                  1518.9138944    15.850323141 DailyPattern               ;
 J12501                  1445.1974524    15.850323141 DailyPattern               ;
 J12502                   1461.956158    15.850323141 DailyPattern               ;
 J12504                  1480.5537416    15.850323141 DailyPattern               ;
 J12505                  1540.2706021    15.850323141 DailyPattern               ;
 J12506                  1509.0621515    15.850323141 DailyPattern               ;
 J12507                  1537.7180684    15.850323141 DailyPattern               ;
 J12508                  1463.3969634    15.850323141 DailyPattern               ;
 J12509                  1528.6046944    15.850323141 DailyPattern               ;
 J12513                  1494.3904021    15.850323141 DailyPattern               ;
 J12514                  1521.6054331    15.850323141 DailyPattern               ;
 J12515                  1486.1524751    15.850323141 DailyPattern               ;
 J12516                  1489.6408196    15.850323141 DailyPattern               ;
 J12518                  1485.4305922    15.850323141 DailyPattern               ;
 J12519                  1503.0254692    15.850323141 DailyPattern               ;
 J12520                  1448.9376306    15.850323141 DailyPattern               ;
 J12523                   1483.335312    15.850323141 DailyPattern               ;
 J12524                   1445.161044    15.850323141 DailyPattern               ;
 J12525                  1501.8046739    15.850323141 DailyPattern               ;
 J12527                  1443.6880197    15.850323141 DailyPattern               ;
 J12528                  1504.2091761    15.850323141 DailyPattern               ;
 J12529                  1462.1735959    15.850323141 DailyPattern               ;
 J12532                  1448.8547101    15.850323141 DailyPattern               ;
 J12534                  1458.2774182    15.850323141 DailyPattern               ;
 J12535                  1500.6735272    15.850323141 DailyPattern               ;
 J12539                  1452.3539782    15.850323141 DailyPattern               ;
 J12540                  1451.3140082    15.850323141 DailyPattern               ;
 J12542                   1536.664476    15.850323141 DailyPattern               ;
 J12543                  1464.9995769    15.850323141 DailyPattern               ;
 J12548                  1506.8501845    15.850323141 DailyPattern               ;
 J12549                  1528.3264675    15.850323141 DailyPattern               ;
 J12550                  1491.4461124    15.850323141 DailyPattern               ;
 J12552                  1472.0543108    15.850323141 DailyPattern               ;
 J12553                  1508.7693543    15.850323141 DailyPattern               ;
 J12554                  1503.9162048    15.850323141 DailyPattern               ;
 J12555                  1495.8336414    15.850323141 DailyPattern               ;
 J12558                  1530.3141295    15.850323141 DailyPattern               ;
 J12559                  1501.2483311    15.850323141 DailyPattern               ;
 J12560                  1520.2035458    15.850323141 DailyPattern               ;
 J12561                  1468.0486046    15.850323141 DailyPattern               ;
 J12562                  1510.3198082    15.850323141 DailyPattern               ;
 J12563                  1532.3681875    15.850323141 DailyPattern               ;
 J12564                  1481.5353341    15.850323141 DailyPattern               ;
 J12566                  1514.9070835    15.850323141 DailyPattern               ;
 J12569                  1456.3834661    15.850323141 DailyPattern               ;
 J12570                  1538.7781337    15.850323141 DailyPattern               ;
 J12571                   1523.432497    15.850323141 DailyPattern               ;
 J12572                  1454.3691405    15.850323141 DailyPattern               ;
 J12575                  1477.5153387    15.850323141 DailyPattern               ;
 J12577                  1496.8807258    15.850323141 DailyPattern               ;
 J12578                  1481.7432841    15.850323141 DailyPattern               ;
 J12579                  1453.5180275    15.850323141 DailyPattern               ;
 J12580                  1522.4987263    15.850323141 DailyPattern               ;
 J12581                  1533.6361646    15.850323141 DailyPattern               ;
 J12585                  1469.5117734    15.850323141 DailyPattern               ;
 J12586                   1464.093918    15.850323141 DailyPattern               ;
 J12589                   1514.124397    15.850323141 DailyPattern               ;
 J12590                  1530.3280937    15.850323141 DailyPattern               ;